# generated using pymatgen
data_MgAl2O4
_symmetry_space_group_name_H-M   'P 1'
_cell_length_a   8.08039119
_cell_length_b   8.08039119
_cell_length_c   8.08039119
_cell_angle_alpha   90.00000000
_cell_angle_beta   90.00000000
_cell_angle_gamma   90.00000000
_symmetry_Int_Tables_number   1
_chemical_formula_structural   MgAl2O4
_chemical_formula_sum   'Mg8 Al16 O32'
_cell_volume   527.59073364
_cell_formula_units_Z   8
loop_
 _symmetry_equiv_pos_site_id
 _symmetry_equiv_pos_as_xyz
  1  'x, y, z'
loop_
 _atom_type_symbol
 _atom_type_oxidation_number
  Mg2+  2.0
  Al3+  3.0
  O2-  -2.0
loop_
 _atom_site_type_symbol
 _atom_site_label
 _atom_site_symmetry_multiplicity
 _atom_site_fract_x
 _atom_site_fract_y
 _atom_site_fract_z
 _atom_site_occupancy
  Mg2+  Mg0  1  0.25000000  0.75000000  0.75000000  1
  Mg2+  Mg1  1  0.00000000  0.50000000  0.50000000  1
  Mg2+  Mg2  1  0.25000000  0.25000000  0.25000000  1
  Mg2+  Mg3  1  0.00000000  0.00000000  0.00000000  1
  Mg2+  Mg4  1  0.75000000  0.75000000  0.25000000  1
  Mg2+  Mg5  1  0.50000000  0.50000000  0.00000000  1
  Mg2+  Mg6  1  0.75000000  0.25000000  0.75000000  1
  Mg2+  Mg7  1  0.50000000  0.00000000  0.50000000  1
  Al3+  Al8  1  0.62500000  0.37500000  0.37500000  1
  Al3+  Al9  1  0.62500000  0.12500000  0.12500000  1
  Al3+  Al10  1  0.37500000  0.12500000  0.87500000  1
  Al3+  Al11  1  0.37500000  0.87500000  0.12500000  1
  Al3+  Al12  1  0.62500000  0.87500000  0.87500000  1
  Al3+  Al13  1  0.62500000  0.62500000  0.62500000  1
  Al3+  Al14  1  0.37500000  0.62500000  0.37500000  1
  Al3+  Al15  1  0.37500000  0.37500000  0.62500000  1
  Al3+  Al16  1  0.12500000  0.37500000  0.87500000  1
  Al3+  Al17  1  0.12500000  0.12500000  0.62500000  1
  Al3+  Al18  1  0.87500000  0.12500000  0.37500000  1
  Al3+  Al19  1  0.87500000  0.87500000  0.62500000  1
  Al3+  Al20  1  0.12500000  0.87500000  0.37500000  1
  Al3+  Al21  1  0.12500000  0.62500000  0.12500000  1
  Al3+  Al22  1  0.87500000  0.62500000  0.87500000  1
  Al3+  Al23  1  0.87500000  0.37500000  0.12500000  1
  O2-  O24  1  0.86127934  0.36127934  0.36127934  1
  O2-  O25  1  0.38872066  0.11127934  0.11127934  1
  O2-  O26  1  0.61127934  0.11127934  0.88872066  1
  O2-  O27  1  0.61127934  0.88872066  0.11127934  1
  O2-  O28  1  0.63872066  0.13872066  0.36127934  1
  O2-  O29  1  0.63872066  0.36127934  0.13872066  1
  O2-  O30  1  0.38872066  0.88872066  0.88872066  1
  O2-  O31  1  0.86127934  0.13872066  0.13872066  1
  O2-  O32  1  0.86127934  0.86127934  0.86127934  1
  O2-  O33  1  0.38872066  0.61127934  0.61127934  1
  O2-  O34  1  0.61127934  0.61127934  0.38872066  1
  O2-  O35  1  0.61127934  0.38872066  0.61127934  1
  O2-  O36  1  0.63872066  0.63872066  0.86127934  1
  O2-  O37  1  0.63872066  0.86127934  0.63872066  1
  O2-  O38  1  0.38872066  0.38872066  0.38872066  1
  O2-  O39  1  0.86127934  0.63872066  0.63872066  1
  O2-  O40  1  0.36127934  0.36127934  0.86127934  1
  O2-  O41  1  0.88872066  0.11127934  0.61127934  1
  O2-  O42  1  0.11127934  0.11127934  0.38872066  1
  O2-  O43  1  0.11127934  0.88872066  0.61127934  1
  O2-  O44  1  0.13872066  0.13872066  0.86127934  1
  O2-  O45  1  0.13872066  0.36127934  0.63872066  1
  O2-  O46  1  0.88872066  0.88872066  0.38872066  1
  O2-  O47  1  0.36127934  0.13872066  0.63872066  1
  O2-  O48  1  0.36127934  0.86127934  0.36127934  1
  O2-  O49  1  0.88872066  0.61127934  0.11127934  1
  O2-  O50  1  0.11127934  0.61127934  0.88872066  1
  O2-  O51  1  0.11127934  0.38872066  0.11127934  1
  O2-  O52  1  0.13872066  0.63872066  0.36127934  1
  O2-  O53  1  0.13872066  0.86127934  0.13872066  1
  O2-  O54  1  0.88872066  0.38872066  0.88872066  1
  O2-  O55  1  0.36127934  0.63872066  0.13872066  1
