# generated using pymatgen
data_Sb2Se3
_symmetry_space_group_name_H-M   'P 1'
_cell_length_a   4.00155687
_cell_length_b   11.71362971
_cell_length_c   12.36207320
_cell_angle_alpha   90.00000000
_cell_angle_beta   90.00000000
_cell_angle_gamma   90.00000000
_symmetry_Int_Tables_number   1
_chemical_formula_structural   Sb2Se3
_chemical_formula_sum   'Sb8 Se12'
_cell_volume   579.44443382
_cell_formula_units_Z   4
loop_
 _symmetry_equiv_pos_site_id
 _symmetry_equiv_pos_as_xyz
  1  'x, y, z'
loop_
 _atom_type_symbol
 _atom_type_oxidation_number
  Sb3+  3.0
  Se2-  -2.0
loop_
 _atom_site_type_symbol
 _atom_site_label
 _atom_site_symmetry_multiplicity
 _atom_site_fract_x
 _atom_site_fract_y
 _atom_site_fract_z
 _atom_site_occupancy
  Sb3+  Sb0  1  0.75000000  0.03809460  0.14032237  1
  Sb3+  Sb1  1  0.25000000  0.96190540  0.85967763  1
  Sb3+  Sb2  1  0.25000000  0.53809460  0.35967763  1
  Sb3+  Sb3  1  0.75000000  0.46190540  0.64032237  1
  Sb3+  Sb4  1  0.25000000  0.32959138  0.03381284  1
  Sb3+  Sb5  1  0.75000000  0.67040862  0.96618716  1
  Sb3+  Sb6  1  0.75000000  0.82959138  0.46618716  1
  Sb3+  Sb7  1  0.25000000  0.17040862  0.53381284  1
  Se2-  Se8  1  0.75000000  0.12752536  0.94834520  1
  Se2-  Se9  1  0.25000000  0.87247464  0.05165480  1
  Se2-  Se10  1  0.25000000  0.62752536  0.55165480  1
  Se2-  Se11  1  0.75000000  0.37247464  0.44834520  1
  Se2-  Se12  1  0.25000000  0.19210067  0.20533132  1
  Se2-  Se13  1  0.75000000  0.80789933  0.79466868  1
  Se2-  Se14  1  0.75000000  0.69210067  0.29466868  1
  Se2-  Se15  1  0.25000000  0.30789933  0.70533132  1
  Se2-  Se16  1  0.75000000  0.05409869  0.62734915  1
  Se2-  Se17  1  0.25000000  0.94590131  0.37265085  1
  Se2-  Se18  1  0.25000000  0.55409869  0.87265085  1
  Se2-  Se19  1  0.75000000  0.44590131  0.12734915  1
